@<TRIPOS>MOLECULE
MOL
   82    85     1     0     0
SMALL
bcc


@<TRIPOS>ATOM
      1 CL8         33.3630    10.1100     9.0430 Cl       201 MOL      -0.063400
      2 CL9         32.9910     9.9310    12.1570 Cl       201 MOL      -0.053400
      3 N1          28.9840     6.9080    -3.5280 N.3      201 MOL      -0.463100
      4 N2          31.7320    10.5240    -0.2330 N.am     201 MOL      -0.568900
      5 N3          37.1570    11.6680     6.3950 N.pl3    201 MOL       0.096400
      6 N4          28.6530     7.7260    -1.3930 N.3      201 MOL      -0.447200
      7 N5          30.5140     8.3500    -2.6090 N.3      201 MOL      -0.342200
      8 N6          33.8020    12.0990     2.3360 N.am     201 MOL      -0.438800
      9 N7          37.2340    11.2320     7.6190 N.2      201 MOL      -0.473800
     10 C10         36.7530    11.8850    10.4520 C.ar     201 MOL      -0.087000
     11 C11         35.2610    11.8040     7.1290 C.2      201 MOL      -0.287300
     12 C12         36.3860    12.7720    17.5610 C.2      201 MOL      -0.241300
     13 C13         36.0200    11.4880     8.1020 C.2      201 MOL       0.347800
     14 C14         32.6950    11.7260     1.6750 C.2      201 MOL       0.629100
     15 C15         34.1670    12.9970     4.5520 C.3      201 MOL      -0.098900
     16 C16         34.4690    10.6990    11.4850 C.ar     201 MOL       0.005400
     17 C17         29.3820     7.6640    -2.5070 C.cat    201 MOL       0.548300
     18 C18         36.3560    11.9000    15.6460 C.2      201 MOL       0.182000
     19 C19         35.4970    12.2480     4.6220 C.3      201 MOL       0.007600
     20 C20         35.3220    15.0400    17.2490 C.2      201 MOL       0.845100
     21 C21         34.6400    10.7810    10.1100 C.ar     201 MOL       0.046400
     22 C22         33.8440    13.3520     3.0990 C.3      201 MOL       0.071500
     23 C23         35.9030    11.9190     6.0400 C.2      201 MOL      -0.108600
     24 C24         35.7840    11.3790     9.5850 C.ar     201 MOL      -0.111500
     25 C25         30.6210     9.7410    -2.2190 C.3      201 MOL      -0.038000
     26 C26         31.8850     9.9750    -1.4400 C.2      201 MOL       0.636100
     27 C27         35.3770    10.9760     3.7830 C.3      201 MOL      -0.098900
     28 C28         32.7470    10.4860     0.8080 C.3      201 MOL       0.022000
     29 C29         35.0410    11.3140     2.3300 C.3      201 MOL       0.071500
     30 C30         35.4320    11.2010    12.3490 C.ar     201 MOL       0.126100
     31 C31         35.8680    13.7580    16.8070 C.2      201 MOL       0.228200
     32 C32         30.5590    10.6210    -3.4650 C.3      201 MOL      -0.083400
     33 C33         36.5800    11.8010    11.8310 C.ar     201 MOL      -0.146000
     34 C34         38.3830    11.8280     5.6230 C.3      201 MOL       0.037600
     35 C35         36.2900    10.8010    14.6130 C.3      201 MOL       0.109100
     36 C36         29.8830    11.9670    -3.2190 C.3      201 MOL      -0.077700
     37 C37         30.2460    12.9520    -4.3230 C.3      201 MOL      -0.101100
     38 C38         28.3680    11.8410    -3.1050 C.3      201 MOL      -0.101100
     39 C39         36.7620    11.7960    16.8380 C.2      201 MOL      -0.231300
     40 O40         34.6100    15.6920    16.4540 O.co2    201 MOL      -0.856800
     41 O41         35.5770    15.4550    18.4020 O.co2    201 MOL      -0.856800
     42 O42         35.9500    13.2720    15.4550 O.3      201 MOL      -0.329800
     43 O43         35.2310    11.1050    13.7040 O.3      201 MOL      -0.326900
     44 O44         31.6500    12.3560     1.7400 O.2      201 MOL      -0.599100
     45 O45         32.9680     9.6610    -1.9130 O.2      201 MOL      -0.602100
     46 H01         28.1260     6.3800    -3.4610 H        201 MOL       0.287200
     47 H02         29.5410     6.8620    -4.3700 H        201 MOL       0.287200
     48 H03         30.8610    10.9930    -0.0310 H        201 MOL       0.329500
     49 H04         28.9600     8.2990    -0.6200 H        201 MOL       0.287200
     50 H05         27.7940     7.2000    -1.3220 H        201 MOL       0.287200
     51 H06         31.3330     7.8840    -2.9730 H        201 MOL       0.309700
     52 H07         37.6520    12.3490    10.0470 H        201 MOL       0.147000
     53 H08         34.1860    11.9580     7.2210 H        201 MOL       0.171000
     54 H09         36.4720    12.8050    18.6470 H        201 MOL       0.165000
     55 H10         34.2410    13.9140     5.1370 H        201 MOL       0.058450
     56 H11         33.3750    12.3660     4.9550 H        201 MOL       0.058450
     57 H12         36.2810    12.8930     4.2260 H        201 MOL       0.054700
     58 H13         32.8880    13.8720     3.0350 H        201 MOL       0.067950
     59 H14         34.6150    14.0080     2.6960 H        201 MOL       0.067950
     60 H15         29.7870    10.0030    -1.5680 H        201 MOL       0.144700
     61 H16         34.5760    10.3610     4.1930 H        201 MOL       0.058450
     62 H17         36.3230    10.4350     3.8150 H        201 MOL       0.058450
     63 H18         33.7260    10.4420     0.3310 H        201 MOL       0.087200
     64 H19         32.5830     9.6080     1.4330 H        201 MOL       0.087200
     65 H20         35.8520    11.8790     1.8700 H        201 MOL       0.067950
     66 H21         34.8990    10.3980     1.7570 H        201 MOL       0.067950
     67 H22         29.9620    10.0900    -4.2060 H        201 MOL       0.059200
     68 H23         31.5760    10.8020    -3.8130 H        201 MOL       0.059200
     69 H24         37.3380    12.2020    12.5030 H        201 MOL       0.149000
     70 H25         39.1970    11.3030     6.1220 H        201 MOL       0.059367
     71 H26         38.2410    11.4130     4.6250 H        201 MOL       0.059367
     72 H27         38.6280    12.8870     5.5450 H        201 MOL       0.059367
     73 H28         36.1070     9.8410    15.0960 H        201 MOL       0.072200
     74 H29         37.2350    10.7440    14.0730 H        201 MOL       0.072200
     75 H30         30.2510    12.3420    -2.2640 H        201 MOL       0.087700
     76 H31         31.2680    12.7650    -4.6540 H        201 MOL       0.040033
     77 H32         29.5630    12.8250    -5.1630 H        201 MOL       0.040033
     78 H33         30.1680    13.9700    -3.9420 H        201 MOL       0.040033
     79 H34         27.8980    12.3310    -3.9580 H        201 MOL       0.040033
     80 H35         28.0900    10.7870    -3.0940 H        201 MOL       0.040033
     81 H36         28.0320    12.3150    -2.1830 H        201 MOL       0.040033
     82 H37         37.3650    10.9650    17.2040 H        201 MOL       0.158000
@<TRIPOS>BOND
     1     1    21 1   
     2     2    16 1   
     3     3    17 2   
     4     3    46 1   
     5     3    47 1   
     6     4    26 am  
     7     4    28 1   
     8     4    48 1   
     9     5     9 1   
    10     5    23 1   
    11     5    34 1   
    12     6    17 1   
    13     6    49 1   
    14     6    50 1   
    15     7    17 1   
    16     7    25 1   
    17     7    51 1   
    18     8    14 am  
    19     8    22 1   
    20     8    29 1   
    21     9    13 2   
    22    10    24 ar  
    23    10    33 ar  
    24    10    52 1   
    25    11    13 1   
    26    11    23 2   
    27    11    53 1   
    28    12    31 2   
    29    12    39 1   
    30    12    54 1   
    31    13    24 1   
    32    14    28 1   
    33    14    44 2   
    34    15    19 1   
    35    15    22 1   
    36    15    55 1   
    37    15    56 1   
    38    16    21 ar  
    39    16    30 ar  
    40    18    35 1   
    41    18    39 2   
    42    18    42 1   
    43    19    23 1   
    44    19    27 1   
    45    19    57 1   
    46    20    31 1   
    47    20    40 1   
    48    20    41 1   
    49    21    24 ar  
    50    22    58 1   
    51    22    59 1   
    52    25    26 1   
    53    25    32 1   
    54    25    60 1   
    55    26    45 2   
    56    27    29 1   
    57    27    61 1   
    58    27    62 1   
    59    28    63 1   
    60    28    64 1   
    61    29    65 1   
    62    29    66 1   
    63    30    33 ar  
    64    30    43 1   
    65    31    42 1   
    66    32    36 1   
    67    32    67 1   
    68    32    68 1   
    69    33    69 1   
    70    34    70 1   
    71    34    71 1   
    72    34    72 1   
    73    35    43 1   
    74    35    73 1   
    75    35    74 1   
    76    36    37 1   
    77    36    38 1   
    78    36    75 1   
    79    37    76 1   
    80    37    77 1   
    81    37    78 1   
    82    38    79 1   
    83    38    80 1   
    84    38    81 1   
    85    39    82 1   
@<TRIPOS>SUBSTRUCTURE
     1 MOL         1 TEMP              0 ****  ****    0 ROOT
