MOL
     RDKit          3D

 82 85  0  0  0  0  0  0  0  0999 V2000
   33.3630   10.1100    9.0430 Cl  0  0  0  0  0  0  0  0  0  0  0  0
   32.9910    9.9310   12.1570 Cl  0  0  0  0  0  0  0  0  0  0  0  0
   28.9840    6.9080   -3.5280 N   0  0  0  0  0  4  0  0  0  0  0  0
   31.7320   10.5240   -0.2330 N   0  0  0  0  0  0  0  0  0  0  0  0
   37.1570   11.6680    6.3950 N   0  0  0  0  0  0  0  0  0  0  0  0
   28.6530    7.7260   -1.3930 N   0  0  0  0  0  0  0  0  0  0  0  0
   30.5140    8.3500   -2.6090 N   0  0  0  0  0  0  0  0  0  0  0  0
   33.8020   12.0990    2.3360 N   0  0  0  0  0  0  0  0  0  0  0  0
   37.2340   11.2320    7.6190 N   0  0  0  0  0  0  0  0  0  0  0  0
   36.7530   11.8850   10.4520 C   0  0  0  0  0  0  0  0  0  0  0  0
   35.2610   11.8040    7.1290 C   0  0  0  0  0  0  0  0  0  0  0  0
   36.3860   12.7720   17.5610 C   0  0  0  0  0  0  0  0  0  0  0  0
   36.0200   11.4880    8.1020 C   0  0  0  0  0  0  0  0  0  0  0  0
   32.6950   11.7260    1.6750 C   0  0  0  0  0  0  0  0  0  0  0  0
   34.1670   12.9970    4.5520 C   0  0  0  0  0  0  0  0  0  0  0  0
   34.4690   10.6990   11.4850 C   0  0  0  0  0  0  0  0  0  0  0  0
   29.3820    7.6640   -2.5070 C   0  0  0  0  0  0  0  0  0  0  0  0
   36.3560   11.9000   15.6460 C   0  0  0  0  0  0  0  0  0  0  0  0
   35.4970   12.2480    4.6220 C   0  0  0  0  0  0  0  0  0  0  0  0
   35.3220   15.0400   17.2490 C   0  0  0  0  0  0  0  0  0  0  0  0
   34.6400   10.7810   10.1100 C   0  0  0  0  0  0  0  0  0  0  0  0
   33.8440   13.3520    3.0990 C   0  0  0  0  0  0  0  0  0  0  0  0
   35.9030   11.9190    6.0400 C   0  0  0  0  0  0  0  0  0  0  0  0
   35.7840   11.3790    9.5850 C   0  0  0  0  0  0  0  0  0  0  0  0
   30.6210    9.7410   -2.2190 C   0  0  1  0  0  0  0  0  0  0  0  0
   31.8850    9.9750   -1.4400 C   0  0  0  0  0  0  0  0  0  0  0  0
   35.3770   10.9760    3.7830 C   0  0  0  0  0  0  0  0  0  0  0  0
   32.7470   10.4860    0.8080 C   0  0  0  0  0  0  0  0  0  0  0  0
   35.0410   11.3140    2.3300 C   0  0  0  0  0  0  0  0  0  0  0  0
   35.4320   11.2010   12.3490 C   0  0  0  0  0  0  0  0  0  0  0  0
   35.8680   13.7580   16.8070 C   0  0  0  0  0  0  0  0  0  0  0  0
   30.5590   10.6210   -3.4650 C   0  0  0  0  0  0  0  0  0  0  0  0
   36.5800   11.8010   11.8310 C   0  0  0  0  0  0  0  0  0  0  0  0
   38.3830   11.8280    5.6230 C   0  0  0  0  0  0  0  0  0  0  0  0
   36.2900   10.8010   14.6130 C   0  0  0  0  0  0  0  0  0  0  0  0
   29.8830   11.9670   -3.2190 C   0  0  0  0  0  0  0  0  0  0  0  0
   30.2460   12.9520   -4.3230 C   0  0  0  0  0  0  0  0  0  0  0  0
   28.3680   11.8410   -3.1050 C   0  0  0  0  0  0  0  0  0  0  0  0
   36.7620   11.7960   16.8380 C   0  0  0  0  0  0  0  0  0  0  0  0
   34.6100   15.6920   16.4540 O   0  0  0  0  0  1  0  0  0  0  0  0
   35.5770   15.4550   18.4020 O   0  0  0  0  0  0  0  0  0  0  0  0
   35.9500   13.2720   15.4550 O   0  0  0  0  0  0  0  0  0  0  0  0
   35.2310   11.1050   13.7040 O   0  0  0  0  0  0  0  0  0  0  0  0
   31.6500   12.3560    1.7400 O   0  0  0  0  0  0  0  0  0  0  0  0
   32.9680    9.6610   -1.9130 O   0  0  0  0  0  0  0  0  0  0  0  0
   28.1260    6.3800   -3.4610 H   0  0  0  0  0  0  0  0  0  0  0  0
   29.5410    6.8620   -4.3700 H   0  0  0  0  0  0  0  0  0  0  0  0
   30.8610   10.9930   -0.0310 H   0  0  0  0  0  0  0  0  0  0  0  0
   28.9600    8.2990   -0.6200 H   0  0  0  0  0  0  0  0  0  0  0  0
   27.7940    7.2000   -1.3220 H   0  0  0  0  0  0  0  0  0  0  0  0
   31.3330    7.8840   -2.9730 H   0  0  0  0  0  0  0  0  0  0  0  0
   37.6520   12.3490   10.0470 H   0  0  0  0  0  0  0  0  0  0  0  0
   34.1860   11.9580    7.2210 H   0  0  0  0  0  0  0  0  0  0  0  0
   36.4720   12.8050   18.6470 H   0  0  0  0  0  0  0  0  0  0  0  0
   34.2410   13.9140    5.1370 H   0  0  0  0  0  0  0  0  0  0  0  0
   33.3750   12.3660    4.9550 H   0  0  0  0  0  0  0  0  0  0  0  0
   36.2810   12.8930    4.2260 H   0  0  0  0  0  0  0  0  0  0  0  0
   32.8880   13.8720    3.0350 H   0  0  0  0  0  0  0  0  0  0  0  0
   34.6150   14.0080    2.6960 H   0  0  0  0  0  0  0  0  0  0  0  0
   29.7870   10.0030   -1.5680 H   0  0  0  0  0  0  0  0  0  0  0  0
   34.5760   10.3610    4.1930 H   0  0  0  0  0  0  0  0  0  0  0  0
   36.3230   10.4350    3.8150 H   0  0  0  0  0  0  0  0  0  0  0  0
   33.7260   10.4420    0.3310 H   0  0  0  0  0  0  0  0  0  0  0  0
   32.5830    9.6080    1.4330 H   0  0  0  0  0  0  0  0  0  0  0  0
   35.8520   11.8790    1.8700 H   0  0  0  0  0  0  0  0  0  0  0  0
   34.8990   10.3980    1.7570 H   0  0  0  0  0  0  0  0  0  0  0  0
   29.9620   10.0900   -4.2060 H   0  0  0  0  0  0  0  0  0  0  0  0
   31.5760   10.8020   -3.8130 H   0  0  0  0  0  0  0  0  0  0  0  0
   37.3380   12.2020   12.5030 H   0  0  0  0  0  0  0  0  0  0  0  0
   39.1970   11.3030    6.1220 H   0  0  0  0  0  0  0  0  0  0  0  0
   38.2410   11.4130    4.6250 H   0  0  0  0  0  0  0  0  0  0  0  0
   38.6280   12.8870    5.5450 H   0  0  0  0  0  0  0  0  0  0  0  0
   36.1070    9.8410   15.0960 H   0  0  0  0  0  0  0  0  0  0  0  0
   37.2350   10.7440   14.0730 H   0  0  0  0  0  0  0  0  0  0  0  0
   30.2510   12.3420   -2.2640 H   0  0  0  0  0  0  0  0  0  0  0  0
   31.2680   12.7650   -4.6540 H   0  0  0  0  0  0  0  0  0  0  0  0
   29.5630   12.8250   -5.1630 H   0  0  0  0  0  0  0  0  0  0  0  0
   30.1680   13.9700   -3.9420 H   0  0  0  0  0  0  0  0  0  0  0  0
   27.8980   12.3310   -3.9580 H   0  0  0  0  0  0  0  0  0  0  0  0
   28.0900   10.7870   -3.0940 H   0  0  0  0  0  0  0  0  0  0  0  0
   28.0320   12.3150   -2.1830 H   0  0  0  0  0  0  0  0  0  0  0  0
   37.3650   10.9650   17.2040 H   0  0  0  0  0  0  0  0  0  0  0  0
  1 21  1  0
  2 16  1  0
  3 17  2  0
  3 46  1  0
  3 47  1  0
  4 26  1  0
  4 28  1  0
  4 48  1  0
  5  9  1  0
  5 23  1  0
  5 34  1  0
  6 17  1  0
  6 49  1  0
  6 50  1  0
  7 17  1  0
  7 25  1  0
  7 51  1  0
  8 14  1  0
  8 22  1  0
  8 29  1  0
  9 13  2  0
 10 24  2  0
 10 33  1  0
 10 52  1  0
 11 13  1  0
 11 23  2  0
 11 53  1  0
 12 31  2  0
 12 39  1  0
 12 54  1  0
 13 24  1  0
 14 28  1  0
 14 44  2  0
 15 19  1  0
 15 22  1  0
 15 55  1  0
 15 56  1  0
 16 21  2  0
 16 30  1  0
 18 35  1  0
 18 39  2  0
 18 42  1  0
 19 23  1  0
 19 27  1  0
 19 57  1  0
 20 31  1  0
 20 40  1  0
 20 41  2  0
 21 24  1  0
 22 58  1  0
 22 59  1  0
 25 26  1  0
 25 32  1  0
 25 60  1  1
 26 45  2  0
 27 29  1  0
 27 61  1  0
 27 62  1  0
 28 63  1  0
 28 64  1  0
 29 65  1  0
 29 66  1  0
 30 33  2  0
 30 43  1  0
 31 42  1  0
 32 36  1  0
 32 67  1  0
 32 68  1  0
 33 69  1  0
 34 70  1  0
 34 71  1  0
 34 72  1  0
 35 43  1  0
 35 73  1  0
 35 74  1  0
 36 37  1  0
 36 38  1  0
 36 75  1  0
 37 76  1  0
 37 77  1  0
 37 78  1  0
 38 79  1  0
 38 80  1  0
 38 81  1  0
 39 82  1  0
M  CHG  2   3   1  40  -1
M  END
>  <_TriposChargeType>  (1) 
bcc

$$$$
