@<TRIPOS>MOLECULE
MOL
   31    31     1     0     0
SMALL
bcc


@<TRIPOS>ATOM
      1 C01          2.1910     0.9920     4.7010 c3       501 MOL       0.087433
      2 N02          0.7440     0.8300     4.7100 n4       501 MOL      -0.604800
      3 C03          0.2440     1.2110     6.0020 c3       501 MOL       0.087433
      4 C04          0.3540    -0.6130     4.4230 c3       501 MOL       0.087433
      5 C05          0.1890     1.6560     3.6790 c3       501 MOL       0.232900
      6 C06         -1.2740     1.5350     3.4030 c1       501 MOL      -0.220100
      7 C07         -2.5300     1.4780     3.1560 c1       501 MOL      -0.010100
      8 C08         -4.0740     1.4450     2.9760 c3       501 MOL       0.189500
      9 O09         -4.5850     0.7580     1.8210 os       501 MOL      -0.363400
     10 C10         -4.1110    -0.4800     1.4870 c2       501 MOL       0.490600
     11 N11         -3.5190    -1.3810     2.3910 n2       501 MOL      -0.489200
     12 O12         -3.1820    -2.5090     1.6960 os       501 MOL      -0.160300
     13 C13         -3.8160    -2.4350     0.4140 c5       501 MOL       0.084400
     14 C14         -4.1530    -1.0400     0.2090 c5       501 MOL      -0.154700
     15 H01          2.6530     0.1000     4.2770 hx       501 MOL       0.104478
     16 H02          2.4560     1.8600     4.0970 hx       501 MOL       0.104478
     17 H03          2.5470     1.1360     5.7210 hx       501 MOL       0.104478
     18 H04         -0.7790     0.8520     6.1150 hx       501 MOL       0.104478
     19 H05          0.8700     0.7720     6.7790 hx       501 MOL       0.104478
     20 H06          0.2600     2.2970     6.0920 hx       501 MOL       0.104478
     21 H07         -0.5810    -0.6320     3.8620 hx       501 MOL       0.104478
     22 H08          1.1380    -1.0920     3.8370 hx       501 MOL       0.104478
     23 H09          0.2240    -1.1490     5.3630 hx       501 MOL       0.104478
     24 H10          0.6710     1.3130     2.7630 hx       501 MOL       0.111700
     25 H11          0.3850     2.6930     3.9520 hx       501 MOL       0.111700
     26 H12         -4.7030    -3.0680     0.3730 h1       501 MOL       0.083200
     27 H13         -3.1360    -2.7790    -0.3650 h1       501 MOL       0.083200
     28 H14         -3.4710    -0.5460    -0.4830 hc       501 MOL       0.098200
     29 H15         -5.1490    -0.9430    -0.2230 hc       501 MOL       0.098200
     30 H16         -4.3630     2.4860     2.8350 h1       501 MOL       0.108700
     31 H17         -4.4980     0.9650     3.8580 h1       501 MOL       0.108700
@<TRIPOS>BOND
     1     1     2 1   
     2     1    15 1   
     3     1    16 1   
     4     1    17 1   
     5     2     3 1   
     6     2     4 1   
     7     2     5 1   
     8     3    18 1   
     9     3    19 1   
    10     3    20 1   
    11     4    21 1   
    12     4    22 1   
    13     4    23 1   
    14     5     6 1   
    15     5    24 1   
    16     5    25 1   
    17     6     7 3   
    18     7     8 1   
    19     8     9 1   
    20     8    30 1   
    21     8    31 1   
    22     9    10 1   
    23    10    11 2   
    24    10    14 1   
    25    11    12 1   
    26    12    13 1   
    27    13    14 1   
    28    13    26 1   
    29    13    27 1   
    30    14    28 1   
    31    14    29 1   
@<TRIPOS>SUBSTRUCTURE
     1 MOL         1 TEMP              0 ****  ****    0 ROOT
