MOL
     RDKit          3D

 82 85  0  0  0  0  0  0  0  0999 V2000
   31.7800   -7.8610   -5.6710 Cl  0  0  0  0  0  0  0  0  0  0  0  0
   31.4080   -8.0400   -2.5570 Cl  0  0  0  0  0  0  0  0  0  0  0  0
   27.4010  -11.0630  -18.2420 N   0  0  0  0  0  4  0  0  0  0  0  0
   30.1490   -7.4470  -14.9470 N   0  0  0  0  0  0  0  0  0  0  0  0
   35.5740   -6.3030   -8.3190 N   0  0  0  0  0  0  0  0  0  0  0  0
   27.0700  -10.2450  -16.1070 N   0  0  0  0  0  0  0  0  0  0  0  0
   28.9310   -9.6210  -17.3230 N   0  0  0  0  0  0  0  0  0  0  0  0
   32.2190   -5.8720  -12.3780 N   0  0  0  0  0  0  0  0  0  0  0  0
   35.6510   -6.7390   -7.0950 N   0  0  0  0  0  0  0  0  0  0  0  0
   35.1700   -6.0860   -4.2620 C   0  0  0  0  0  0  0  0  0  0  0  0
   33.6780   -6.1670   -7.5850 C   0  0  0  0  0  0  0  0  0  0  0  0
   34.8030   -5.1990    2.8470 C   0  0  0  0  0  0  0  0  0  0  0  0
   34.4370   -6.4830   -6.6120 C   0  0  0  0  0  0  0  0  0  0  0  0
   31.1120   -6.2450  -13.0390 C   0  0  0  0  0  0  0  0  0  0  0  0
   32.5840   -4.9740  -10.1620 C   0  0  0  0  0  0  0  0  0  0  0  0
   32.8860   -7.2720   -3.2290 C   0  0  0  0  0  0  0  0  0  0  0  0
   27.7990  -10.3070  -17.2210 C   0  0  0  0  0  0  0  0  0  0  0  0
   34.7730   -6.0710    0.9320 C   0  0  0  0  0  0  0  0  0  0  0  0
   33.9140   -5.7230  -10.0920 C   0  0  0  0  0  0  0  0  0  0  0  0
   33.7390   -2.9310    2.5350 C   0  0  0  0  0  0  0  0  0  0  0  0
   33.0570   -7.1900   -4.6040 C   0  0  0  0  0  0  0  0  0  0  0  0
   32.2610   -4.6190  -11.6150 C   0  0  0  0  0  0  0  0  0  0  0  0
   34.3200   -6.0520   -8.6740 C   0  0  0  0  0  0  0  0  0  0  0  0
   34.2010   -6.5920   -5.1290 C   0  0  0  0  0  0  0  0  0  0  0  0
   29.0380   -8.2300  -16.9330 C   0  0  1  0  0  0  0  0  0  0  0  0
   30.3020   -7.9960  -16.1540 C   0  0  0  0  0  0  0  0  0  0  0  0
   33.7940   -6.9950  -10.9310 C   0  0  0  0  0  0  0  0  0  0  0  0
   31.1640   -7.4850  -13.9060 C   0  0  0  0  0  0  0  0  0  0  0  0
   33.4580   -6.6570  -12.3840 C   0  0  0  0  0  0  0  0  0  0  0  0
   33.8490   -6.7700   -2.3650 C   0  0  0  0  0  0  0  0  0  0  0  0
   34.2850   -4.2130    2.0930 C   0  0  0  0  0  0  0  0  0  0  0  0
   28.9760   -7.3500  -18.1790 C   0  0  0  0  0  0  0  0  0  0  0  0
   34.9970   -6.1700   -2.8830 C   0  0  0  0  0  0  0  0  0  0  0  0
   36.8000   -6.1430   -9.0910 C   0  0  0  0  0  0  0  0  0  0  0  0
   34.7070   -7.1700   -0.1010 C   0  0  0  0  0  0  0  0  0  0  0  0
   28.3000   -6.0040  -17.9330 C   0  0  0  0  0  0  0  0  0  0  0  0
   28.6630   -5.0190  -19.0370 C   0  0  0  0  0  0  0  0  0  0  0  0
   26.7850   -6.1300  -17.8190 C   0  0  0  0  0  0  0  0  0  0  0  0
   35.1790   -6.1750    2.1240 C   0  0  0  0  0  0  0  0  0  0  0  0
   33.0270   -2.2790    1.7400 O   0  0  0  0  0  1  0  0  0  0  0  0
   33.9940   -2.5160    3.6880 O   0  0  0  0  0  0  0  0  0  0  0  0
   34.3670   -4.6990    0.7410 O   0  0  0  0  0  0  0  0  0  0  0  0
   33.6480   -6.8660   -1.0100 O   0  0  0  0  0  0  0  0  0  0  0  0
   30.0670   -5.6150  -12.9740 O   0  0  0  0  0  0  0  0  0  0  0  0
   31.3850   -8.3100  -16.6270 O   0  0  0  0  0  0  0  0  0  0  0  0
   26.5430  -11.5910  -18.1750 H   0  0  0  0  0  0  0  0  0  0  0  0
   27.9580  -11.1090  -19.0840 H   0  0  0  0  0  0  0  0  0  0  0  0
   29.2780   -6.9780  -14.7450 H   0  0  0  0  0  0  0  0  0  0  0  0
   27.3770   -9.6720  -15.3340 H   0  0  0  0  0  0  0  0  0  0  0  0
   26.2110  -10.7710  -16.0360 H   0  0  0  0  0  0  0  0  0  0  0  0
   29.7500  -10.0870  -17.6870 H   0  0  0  0  0  0  0  0  0  0  0  0
   36.0690   -5.6220   -4.6670 H   0  0  0  0  0  0  0  0  0  0  0  0
   32.6030   -6.0130   -7.4930 H   0  0  0  0  0  0  0  0  0  0  0  0
   34.8890   -5.1660    3.9330 H   0  0  0  0  0  0  0  0  0  0  0  0
   32.6580   -4.0570   -9.5770 H   0  0  0  0  0  0  0  0  0  0  0  0
   31.7920   -5.6050   -9.7590 H   0  0  0  0  0  0  0  0  0  0  0  0
   34.6980   -5.0780  -10.4880 H   0  0  0  0  0  0  0  0  0  0  0  0
   31.3050   -4.0990  -11.6790 H   0  0  0  0  0  0  0  0  0  0  0  0
   33.0320   -3.9630  -12.0180 H   0  0  0  0  0  0  0  0  0  0  0  0
   28.2040   -7.9680  -16.2820 H   0  0  0  0  0  0  0  0  0  0  0  0
   32.9930   -7.6100  -10.5210 H   0  0  0  0  0  0  0  0  0  0  0  0
   34.7400   -7.5360  -10.8990 H   0  0  0  0  0  0  0  0  0  0  0  0
   32.1430   -7.5290  -14.3830 H   0  0  0  0  0  0  0  0  0  0  0  0
   31.0000   -8.3630  -13.2810 H   0  0  0  0  0  0  0  0  0  0  0  0
   34.2690   -6.0920  -12.8440 H   0  0  0  0  0  0  0  0  0  0  0  0
   33.3160   -7.5730  -12.9570 H   0  0  0  0  0  0  0  0  0  0  0  0
   28.3790   -7.8810  -18.9200 H   0  0  0  0  0  0  0  0  0  0  0  0
   29.9930   -7.1690  -18.5270 H   0  0  0  0  0  0  0  0  0  0  0  0
   35.7550   -5.7690   -2.2110 H   0  0  0  0  0  0  0  0  0  0  0  0
   37.6140   -6.6680   -8.5920 H   0  0  0  0  0  0  0  0  0  0  0  0
   36.6580   -6.5580  -10.0890 H   0  0  0  0  0  0  0  0  0  0  0  0
   37.0450   -5.0840   -9.1690 H   0  0  0  0  0  0  0  0  0  0  0  0
   34.5240   -8.1300    0.3820 H   0  0  0  0  0  0  0  0  0  0  0  0
   35.6520   -7.2270   -0.6410 H   0  0  0  0  0  0  0  0  0  0  0  0
   28.6680   -5.6290  -16.9780 H   0  0  0  0  0  0  0  0  0  0  0  0
   29.6850   -5.2060  -19.3680 H   0  0  0  0  0  0  0  0  0  0  0  0
   27.9800   -5.1460  -19.8770 H   0  0  0  0  0  0  0  0  0  0  0  0
   28.5850   -4.0010  -18.6560 H   0  0  0  0  0  0  0  0  0  0  0  0
   26.3150   -5.6400  -18.6720 H   0  0  0  0  0  0  0  0  0  0  0  0
   26.5070   -7.1840  -17.8080 H   0  0  0  0  0  0  0  0  0  0  0  0
   26.4490   -5.6560  -16.8970 H   0  0  0  0  0  0  0  0  0  0  0  0
   35.7820   -7.0060    2.4900 H   0  0  0  0  0  0  0  0  0  0  0  0
  1 21  1  0
  2 16  1  0
  3 17  2  0
  3 46  1  0
  3 47  1  0
  4 26  1  0
  4 28  1  0
  4 48  1  0
  5  9  1  0
  5 23  1  0
  5 34  1  0
  6 17  1  0
  6 49  1  0
  6 50  1  0
  7 17  1  0
  7 25  1  0
  7 51  1  0
  8 14  1  0
  8 22  1  0
  8 29  1  0
  9 13  2  0
 10 24  2  0
 10 33  1  0
 10 52  1  0
 11 13  1  0
 11 23  2  0
 11 53  1  0
 12 31  2  0
 12 39  1  0
 12 54  1  0
 13 24  1  0
 14 28  1  0
 14 44  2  0
 15 19  1  0
 15 22  1  0
 15 55  1  0
 15 56  1  0
 16 21  2  0
 16 30  1  0
 18 35  1  0
 18 39  2  0
 18 42  1  0
 19 23  1  0
 19 27  1  0
 19 57  1  0
 20 31  1  0
 20 40  1  0
 20 41  2  0
 21 24  1  0
 22 58  1  0
 22 59  1  0
 25 26  1  0
 25 32  1  0
 25 60  1  1
 26 45  2  0
 27 29  1  0
 27 61  1  0
 27 62  1  0
 28 63  1  0
 28 64  1  0
 29 65  1  0
 29 66  1  0
 30 33  2  0
 30 43  1  0
 31 42  1  0
 32 36  1  0
 32 67  1  0
 32 68  1  0
 33 69  1  0
 34 70  1  0
 34 71  1  0
 34 72  1  0
 35 43  1  0
 35 73  1  0
 35 74  1  0
 36 37  1  0
 36 38  1  0
 36 75  1  0
 37 76  1  0
 37 77  1  0
 37 78  1  0
 38 79  1  0
 38 80  1  0
 38 81  1  0
 39 82  1  0
M  CHG  2   3   1  40  -1
M  END
>  <_TriposChargeType>  (1) 
bcc

$$$$
