@<TRIPOS>MOLECULE
MOL
   82    85     1     0     0
SMALL
bcc


@<TRIPOS>ATOM
      1 CL8         31.7800    -7.8610    -5.6710 Cl       201 MOL      -0.057400
      2 CL9         31.4080    -8.0400    -2.5570 Cl       201 MOL      -0.059400
      3 N1          27.4010   -11.0630   -18.2420 N.3      201 MOL      -0.457600
      4 N2          30.1490    -7.4470   -14.9470 N.am     201 MOL      -0.533900
      5 N3          35.5740    -6.3030    -8.3190 N.pl3    201 MOL       0.098400
      6 N4          27.0700   -10.2450   -16.1070 N.3      201 MOL      -0.441700
      7 N5          28.9310    -9.6210   -17.3230 N.3      201 MOL      -0.352200
      8 N6          32.2190    -5.8720   -12.3780 N.am     201 MOL      -0.415800
      9 N7          35.6510    -6.7390    -7.0950 N.2      201 MOL      -0.475800
     10 C10         35.1700    -6.0860    -4.2620 C.ar     201 MOL      -0.073000
     11 C11         33.6780    -6.1670    -7.5850 C.2      201 MOL      -0.287300
     12 C12         34.8030    -5.1990     2.8470 C.2      201 MOL      -0.241300
     13 C13         34.4370    -6.4830    -6.6120 C.2      201 MOL       0.361800
     14 C14         31.1120    -6.2450   -13.0390 C.2      201 MOL       0.610100
     15 C15         32.5840    -4.9740   -10.1620 C.3      201 MOL      -0.108400
     16 C16         32.8860    -7.2720    -3.2290 C.ar     201 MOL      -0.019600
     17 C17         27.7990   -10.3070   -17.2210 C.cat    201 MOL       0.541300
     18 C18         34.7730    -6.0710     0.9320 C.2      201 MOL       0.185000
     19 C19         33.9140    -5.7230   -10.0920 C.3      201 MOL       0.013600
     20 C20         33.7390    -2.9310     2.5350 C.2      201 MOL       0.846100
     21 C21         33.0570    -7.1900    -4.6040 C.ar     201 MOL       0.063400
     22 C22         32.2610    -4.6190   -11.6150 C.3      201 MOL       0.059500
     23 C23         34.3200    -6.0520    -8.6740 C.2      201 MOL      -0.114600
     24 C24         34.2010    -6.5920    -5.1290 C.ar     201 MOL      -0.135500
     25 C25         29.0380    -8.2300   -16.9330 C.3      201 MOL      -0.053000
     26 C26         30.3020    -7.9960   -16.1540 C.2      201 MOL       0.637100
     27 C27         33.7940    -6.9950   -10.9310 C.3      201 MOL      -0.108400
     28 C28         31.1640    -7.4850   -13.9060 C.3      201 MOL       0.007000
     29 C29         33.4580    -6.6570   -12.3840 C.3      201 MOL       0.059500
     30 C30         33.8490    -6.7700    -2.3650 C.ar     201 MOL       0.147100
     31 C31         34.2850    -4.2130     2.0930 C.2      201 MOL       0.228200
     32 C32         28.9760    -7.3500   -18.1790 C.3      201 MOL      -0.084400
     33 C33         34.9970    -6.1700    -2.8830 C.ar     201 MOL      -0.180000
     34 C34         36.8000    -6.1430    -9.0910 C.3      201 MOL       0.038600
     35 C35         34.7070    -7.1700    -0.1010 C.3      201 MOL       0.107100
     36 C36         28.3000    -6.0040   -17.9330 C.3      201 MOL      -0.072700
     37 C37         28.6630    -5.0190   -19.0370 C.3      201 MOL      -0.096100
     38 C38         26.7850    -6.1300   -17.8190 C.3      201 MOL      -0.096100
     39 C39         35.1790    -6.1750     2.1240 C.2      201 MOL      -0.237300
     40 O40         33.0270    -2.2790     1.7400 O.co2    201 MOL      -0.860300
     41 O41         33.9940    -2.5160     3.6880 O.co2    201 MOL      -0.860300
     42 O42         34.3670    -4.6990     0.7410 O.3      201 MOL      -0.330800
     43 O43         33.6480    -6.8660    -1.0100 O.3      201 MOL      -0.309900
     44 O44         30.0670    -5.6150   -12.9740 O.2      201 MOL      -0.590100
     45 O45         31.3850    -8.3100   -16.6270 O.2      201 MOL      -0.583100
     46 H01         26.5430   -11.5910   -18.1750 H        201 MOL       0.286950
     47 H02         27.9580   -11.1090   -19.0840 H        201 MOL       0.286950
     48 H03         29.2780    -6.9780   -14.7450 H        201 MOL       0.322500
     49 H04         27.3770    -9.6720   -15.3340 H        201 MOL       0.286950
     50 H05         26.2110   -10.7710   -16.0360 H        201 MOL       0.286950
     51 H06         29.7500   -10.0870   -17.6870 H        201 MOL       0.305700
     52 H07         36.0690    -5.6220    -4.6670 H        201 MOL       0.146000
     53 H08         32.6030    -6.0130    -7.4930 H        201 MOL       0.166000
     54 H09         34.8890    -5.1660     3.9330 H        201 MOL       0.164000
     55 H10         32.6580    -4.0570    -9.5770 H        201 MOL       0.059950
     56 H11         31.7920    -5.6050    -9.7590 H        201 MOL       0.059950
     57 H12         34.6980    -5.0780   -10.4880 H        201 MOL       0.053700
     58 H13         31.3050    -4.0990   -11.6790 H        201 MOL       0.066450
     59 H14         33.0320    -3.9630   -12.0180 H        201 MOL       0.066450
     60 H15         28.2040    -7.9680   -16.2820 H        201 MOL       0.150700
     61 H16         32.9930    -7.6100   -10.5210 H        201 MOL       0.059950
     62 H17         34.7400    -7.5360   -10.8990 H        201 MOL       0.059950
     63 H18         32.1430    -7.5290   -14.3830 H        201 MOL       0.090700
     64 H19         31.0000    -8.3630   -13.2810 H        201 MOL       0.090700
     65 H20         34.2690    -6.0920   -12.8440 H        201 MOL       0.066450
     66 H21         33.3160    -7.5730   -12.9570 H        201 MOL       0.066450
     67 H22         28.3790    -7.8810   -18.9200 H        201 MOL       0.062200
     68 H23         29.9930    -7.1690   -18.5270 H        201 MOL       0.062200
     69 H24         35.7550    -5.7690    -2.2110 H        201 MOL       0.164000
     70 H25         37.6140    -6.6680    -8.5920 H        201 MOL       0.058700
     71 H26         36.6580    -6.5580   -10.0890 H        201 MOL       0.058700
     72 H27         37.0450    -5.0840    -9.1690 H        201 MOL       0.058700
     73 H28         34.5240    -8.1300     0.3820 H        201 MOL       0.074700
     74 H29         35.6520    -7.2270    -0.6410 H        201 MOL       0.074700
     75 H30         28.6680    -5.6290   -16.9780 H        201 MOL       0.071700
     76 H31         29.6850    -5.2060   -19.3680 H        201 MOL       0.040700
     77 H32         27.9800    -5.1460   -19.8770 H        201 MOL       0.040700
     78 H33         28.5850    -4.0010   -18.6560 H        201 MOL       0.040700
     79 H34         26.3150    -5.6400   -18.6720 H        201 MOL       0.040700
     80 H35         26.5070    -7.1840   -17.8080 H        201 MOL       0.040700
     81 H36         26.4490    -5.6560   -16.8970 H        201 MOL       0.040700
     82 H37         35.7820    -7.0060     2.4900 H        201 MOL       0.158000
@<TRIPOS>BOND
     1     1    21 1   
     2     2    16 1   
     3     3    17 2   
     4     3    46 1   
     5     3    47 1   
     6     4    26 am  
     7     4    28 1   
     8     4    48 1   
     9     5     9 1   
    10     5    23 1   
    11     5    34 1   
    12     6    17 1   
    13     6    49 1   
    14     6    50 1   
    15     7    17 1   
    16     7    25 1   
    17     7    51 1   
    18     8    14 am  
    19     8    22 1   
    20     8    29 1   
    21     9    13 2   
    22    10    24 ar  
    23    10    33 ar  
    24    10    52 1   
    25    11    13 1   
    26    11    23 2   
    27    11    53 1   
    28    12    31 2   
    29    12    39 1   
    30    12    54 1   
    31    13    24 1   
    32    14    28 1   
    33    14    44 2   
    34    15    19 1   
    35    15    22 1   
    36    15    55 1   
    37    15    56 1   
    38    16    21 ar  
    39    16    30 ar  
    40    18    35 1   
    41    18    39 2   
    42    18    42 1   
    43    19    23 1   
    44    19    27 1   
    45    19    57 1   
    46    20    31 1   
    47    20    40 1   
    48    20    41 1   
    49    21    24 ar  
    50    22    58 1   
    51    22    59 1   
    52    25    26 1   
    53    25    32 1   
    54    25    60 1   
    55    26    45 2   
    56    27    29 1   
    57    27    61 1   
    58    27    62 1   
    59    28    63 1   
    60    28    64 1   
    61    29    65 1   
    62    29    66 1   
    63    30    33 ar  
    64    30    43 1   
    65    31    42 1   
    66    32    36 1   
    67    32    67 1   
    68    32    68 1   
    69    33    69 1   
    70    34    70 1   
    71    34    71 1   
    72    34    72 1   
    73    35    43 1   
    74    35    73 1   
    75    35    74 1   
    76    36    37 1   
    77    36    38 1   
    78    36    75 1   
    79    37    76 1   
    80    37    77 1   
    81    37    78 1   
    82    38    79 1   
    83    38    80 1   
    84    38    81 1   
    85    39    82 1   
@<TRIPOS>SUBSTRUCTURE
     1 MOL         1 TEMP              0 ****  ****    0 ROOT
