@<TRIPOS>MOLECULE
MOL
   30    30     1     0     0
SMALL
resp


@<TRIPOS>ATOM
      1 C1          -0.6330     0.6000    -0.1440 ca         1 MOL      -0.129863
      2 C2           0.1780     1.6840     0.2230 ca         1 MOL      -0.111699
      3 C3           1.5620     1.5220     0.3390 ca         1 MOL      -0.118860
      4 C4           2.1480     0.2710     0.0930 ca         1 MOL      -0.158696
      5 C5           1.3300    -0.8170    -0.2460 ca         1 MOL      -0.118860
      6 C6          -0.0480    -0.6540    -0.3640 ca         1 MOL      -0.111699
      7 C7          -2.0960     0.8130    -0.3070 c          1 MOL       0.852518
      8 C8           3.6300     0.1300     0.1780 c          1 MOL       0.868043
      9 O1           4.3870     1.0320     0.4770 o          1 MOL      -0.584365
     10 O2           3.9730    -1.1390    -0.1520 os         1 MOL      -0.410916
     11 C9           5.3730    -1.4030    -0.1480 c3         1 MOL      -0.079259
     12 O3          -2.6540     1.8760    -0.1190 o          1 MOL      -0.580689
     13 O4          -2.6790    -0.3470    -0.6960 os         1 MOL      -0.452791
     14 C10         -4.0960    -0.3170    -0.8950 c3         1 MOL       0.049353
     15 C11         -4.8370    -0.4310     0.4340 c3         1 MOL       0.129401
     16 C12         -4.5000    -1.7190     1.1710 c3         1 MOL      -0.057936
     17 H1          -0.2670     2.6620     0.4070 ha         1 MOL       0.145664
     18 H2           2.1830     2.3740     0.6110 ha         1 MOL       0.147233
     19 H3           1.7530    -1.8000    -0.4360 ha         1 MOL       0.147233
     20 H4          -0.6490    -1.5160    -0.6400 ha         1 MOL       0.145664
     21 H5           5.5140    -2.4510    -0.4250 h1         1 MOL       0.099757
     22 H6           5.7880    -1.2480     0.8530 h1         1 MOL       0.099757
     23 H7           5.8820    -0.7770    -0.8870 h1         1 MOL       0.099757
     24 H8          -4.3440    -1.1720    -1.5340 h1         1 MOL       0.062847
     25 H9          -4.3870     0.5870    -1.4430 h1         1 MOL       0.062847
     26 H10         -5.9160    -0.3870     0.2500 hc         1 MOL      -0.015187
     27 H11         -4.5790     0.4140     1.0820 hc         1 MOL      -0.015187
     28 H12         -4.7520    -2.5940     0.5630 hc         1 MOL       0.011978
     29 H13         -5.0670    -1.7790     2.1050 hc         1 MOL       0.011978
     30 H14         -3.4350    -1.7700     1.4210 hc         1 MOL       0.011978
@<TRIPOS>BOND
     1     1     2 ar  
     2     1     6 ar  
     3     1     7 1   
     4     2     3 ar  
     5     2    17 1   
     6     3     4 ar  
     7     3    18 1   
     8     4     5 ar  
     9     4     8 1   
    10     5     6 ar  
    11     5    19 1   
    12     6    20 1   
    13     7    12 2   
    14     7    13 1   
    15     8     9 2   
    16     8    10 1   
    17    10    11 1   
    18    11    21 1   
    19    11    22 1   
    20    11    23 1   
    21    13    14 1   
    22    14    15 1   
    23    14    24 1   
    24    14    25 1   
    25    15    16 1   
    26    15    26 1   
    27    15    27 1   
    28    16    28 1   
    29    16    29 1   
    30    16    30 1   
@<TRIPOS>SUBSTRUCTURE
     1 MOL         1 TEMP              0 ****  ****    0 ROOT
