@<TRIPOS>MOLECULE
MOL
   30    30     1     0     0
SMALL
No Charge or Current Charge


@<TRIPOS>ATOM
      1 C1         -1.2820   -0.1360   -0.0140 ca        1 MOL      0.000000
      2 C2         -0.6810    1.1290    0.0710 ca        1 MOL      0.000000
      3 C3          0.7130    1.2480    0.0820 ca        1 MOL      0.000000
      4 C4          1.5180    0.1020    0.0110 ca        1 MOL      0.000000
      5 C5          0.9130   -1.1620   -0.0460 ca        1 MOL      0.000000
      6 C6         -0.4750   -1.2800   -0.0590 ca        1 MOL      0.000000
      7 C7         -2.7650   -0.2300   -0.0730 c         1 MOL      0.000000
      8 C8          3.0020    0.2530   -0.0220 c         1 MOL      0.000000
      9 O1          3.5820    1.3190    0.0350 o         1 MOL      0.000000
     10 O2          3.5680   -0.9710   -0.1480 os        1 MOL      0.000000
     11 C9          4.9910   -0.9690   -0.2300 c3        1 MOL      0.000000
     12 O3         -3.5100    0.7290   -0.0280 o         1 MOL      0.000000
     13 O4         -3.1290   -1.5300   -0.1880 os        1 MOL      0.000000
     14 C10        -4.5340   -1.7990   -0.2520 c3        1 MOL      0.000000
     15 C11        -5.1580   -1.7840    1.1400 c3        1 MOL      0.000000
     16 C12        -4.5300   -2.8190    2.0620 c3        1 MOL      0.000000
     17 H1         -1.2980    2.0260    0.1170 ha        1 MOL      0.000000
     18 H2          1.1680    2.2360    0.1340 ha        1 MOL      0.000000
     19 H3          1.5100   -2.0690   -0.0940 ha        1 MOL      0.000000
     20 H4         -0.9090   -2.2750   -0.1150 ha        1 MOL      0.000000
     21 H5          5.3190   -2.0070   -0.3250 h1        1 MOL      0.000000
     22 H6          5.4250   -0.5480    0.6820 h1        1 MOL      0.000000
     23 H7          5.3210   -0.4180   -1.1150 h1        1 MOL      0.000000
     24 H8         -4.6450   -2.7930   -0.6990 h1        1 MOL      0.000000
     25 H9         -5.0290   -1.0890   -0.9240 h1        1 MOL      0.000000
     26 H10        -6.2330   -1.9750    1.0550 hc        1 MOL      0.000000
     27 H11        -5.0340   -0.7960    1.5970 hc        1 MOL      0.000000
     28 H12        -4.6390   -3.8270    1.6500 hc        1 MOL      0.000000
     29 H13        -5.0180   -2.7970    3.0420 hc        1 MOL      0.000000
     30 H14        -3.4630   -2.6240    2.2140 hc        1 MOL      0.000000
@<TRIPOS>BOND
     1    1    2 ar  
     2    1    7 1   
     3    2    3 ar  
     4    2   17 1   
     5    3    4 ar  
     6    3   18 1   
     7    4    5 ar  
     8    4    8 1   
     9    5    6 ar  
    10    5   19 1   
    11    6    1 ar  
    12    6   20 1   
    13    7   12 2   
    14    7   13 1   
    15    8    9 2   
    16    8   10 1   
    17   10   11 1   
    18   11   21 1   
    19   11   22 1   
    20   11   23 1   
    21   13   14 1   
    22   14   15 1   
    23   14   24 1   
    24   14   25 1   
    25   15   16 1   
    26   15   26 1   
    27   15   27 1   
    28   16   28 1   
    29   16   29 1   
    30   16   30 1   
@<TRIPOS>SUBSTRUCTURE
     1 MOL         1 TEMP              0 ****  ****    0 ROOT
