MOL
     RDKit          3D

 31 31  0  0  0  0  0  0  0  0999 V2000
    2.1910    0.9920    4.7010 C   0  0  0  0  0  0  0  0  0  0  0  0
    0.7440    0.8300    4.7100 N   0  0  0  0  0  4  0  0  0  0  0  0
    0.2440    1.2110    6.0020 C   0  0  0  0  0  0  0  0  0  0  0  0
    0.3540   -0.6130    4.4230 C   0  0  0  0  0  0  0  0  0  0  0  0
    0.1890    1.6560    3.6790 C   0  0  0  0  0  0  0  0  0  0  0  0
   -1.2740    1.5350    3.4030 C   0  0  0  0  0  0  0  0  0  0  0  0
   -2.5300    1.4780    3.1560 C   0  0  0  0  0  0  0  0  0  0  0  0
   -4.0740    1.4450    2.9760 C   0  0  0  0  0  0  0  0  0  0  0  0
   -4.5850    0.7580    1.8210 O   0  0  0  0  0  0  0  0  0  0  0  0
   -4.1110   -0.4800    1.4870 C   0  0  0  0  0  0  0  0  0  0  0  0
   -3.5190   -1.3810    2.3910 N   0  0  0  0  0  0  0  0  0  0  0  0
   -3.1820   -2.5090    1.6960 O   0  0  0  0  0  0  0  0  0  0  0  0
   -3.8160   -2.4350    0.4140 C   0  0  0  0  0  0  0  0  0  0  0  0
   -4.1530   -1.0400    0.2090 C   0  0  0  0  0  0  0  0  0  0  0  0
    2.6530    0.1000    4.2770 H   0  0  0  0  0  0  0  0  0  0  0  0
    2.4560    1.8600    4.0970 H   0  0  0  0  0  0  0  0  0  0  0  0
    2.5470    1.1360    5.7210 H   0  0  0  0  0  0  0  0  0  0  0  0
   -0.7790    0.8520    6.1150 H   0  0  0  0  0  0  0  0  0  0  0  0
    0.8700    0.7720    6.7790 H   0  0  0  0  0  0  0  0  0  0  0  0
    0.2600    2.2970    6.0920 H   0  0  0  0  0  0  0  0  0  0  0  0
   -0.5810   -0.6320    3.8620 H   0  0  0  0  0  0  0  0  0  0  0  0
    1.1380   -1.0920    3.8370 H   0  0  0  0  0  0  0  0  0  0  0  0
    0.2240   -1.1490    5.3630 H   0  0  0  0  0  0  0  0  0  0  0  0
    0.6710    1.3130    2.7630 H   0  0  0  0  0  0  0  0  0  0  0  0
    0.3850    2.6930    3.9520 H   0  0  0  0  0  0  0  0  0  0  0  0
   -4.7030   -3.0680    0.3730 H   0  0  0  0  0  0  0  0  0  0  0  0
   -3.1360   -2.7790   -0.3650 H   0  0  0  0  0  0  0  0  0  0  0  0
   -3.4710   -0.5460   -0.4830 H   0  0  0  0  0  0  0  0  0  0  0  0
   -5.1490   -0.9430   -0.2230 H   0  0  0  0  0  0  0  0  0  0  0  0
   -4.3630    2.4860    2.8350 H   0  0  0  0  0  0  0  0  0  0  0  0
   -4.4980    0.9650    3.8580 H   0  0  0  0  0  0  0  0  0  0  0  0
  1  2  1  0
  1 15  1  0
  1 16  1  0
  1 17  1  0
  2  3  1  0
  2  4  1  0
  2  5  1  0
  3 18  1  0
  3 19  1  0
  3 20  1  0
  4 21  1  0
  4 22  1  0
  4 23  1  0
  5  6  1  0
  5 24  1  0
  5 25  1  0
  6  7  3  0
  7  8  1  0
  8  9  1  0
  8 30  1  0
  8 31  1  0
  9 10  1  0
 10 11  2  0
 10 14  1  0
 11 12  1  0
 12 13  1  0
 13 14  1  0
 13 26  1  0
 13 27  1  0
 14 28  1  0
 14 29  1  0
M  CHG  1   2   1
M  END
>  <_TriposChargeType>  (1) 
bcc

$$$$
